ACTIVSg2000_no_solar_summer16_min_springwind1.raw
0,   100.00, 33, 0, 0, 60.00     / PSS(R)E 33 RAW created by rawd33  THU, JUN 25 2020   9:35
THIS IS A SYNTHETIC POWER SYSTEM MODEL THAT DOES NOT REPRESE
DATA RESEARCH PROJECT AND CONTAINS NO CEII.
  1001,'ODESSA 2 0  ', 115.0000,1,   1,   9,   1,0.99790, -22.7040,1.10000,0.90000,1.10000,0.90000
  1002,'PRESIDIO 2 0', 115.0000,1,   1,   9,   1,1.06320, -34.3473,1.10000,0.90000,1.10000,0.90000
  1003,'O DONNELL ~1', 115.0000,1,   1,   9,   1,1.09286,   3.8179,1.10000,0.90000,1.10000,0.90000
  1004,'O DONNELL ~2', 230.0000,2,   1,   9,   1,1.08796,   6.1161,1.10000,0.90000,1.10000,0.90000
  1005,'BIG SPRING~8', 115.0000,1,   1,   9,   1,1.03033, -15.5353,1.10000,0.90000,1.10000,0.90000
  1006,'BIG SPRING~9',  13.8000,2,   1,   9,   1,1.04120, -14.6428,1.10000,0.90000,1.10000,0.90000
  1007,'VAN HORN 0  ', 115.0000,1,   1,   9,   1,1.08326, -34.0062,1.10000,0.90000,1.10000,0.90000
  1008,'IRAAN 2 0   ', 115.0000,1,   1,   9,   1,1.10328,  -8.3109,1.10000,0.90000,1.10000,0.90000
  1009,'IRAAN 2 1   ',  13.8000,2,   1,   9,   1,1.09886,  -7.0420,1.10000,0.90000,1.10000,0.90000
  1010,'PRESIDIO 1 0', 115.0000,1,   1,   9,   1,1.08126, -32.2436,1.10000,0.90000,1.10000,0.90000
  1011,'PRESIDIO 1 1',  22.0000,2,   1,   9,   1,1.08126, -32.2436,1.10000,0.90000,1.10000,0.90000
  1012,'SANDERSON 0 ', 115.0000,1,   1,   9,   1,1.08791,  -9.9331,1.10000,0.90000,1.10000,0.90000
  1013,'MONAHANS 2 0', 115.0000,1,   1,   9,   1,1.01939, -27.1535,1.10000,0.90000,1.10000,0.90000
  1014,'GRANDFALLS 0', 115.0000,1,   1,   9,   1,1.05038, -20.1375,1.10000,0.90000,1.10000,0.90000
  1015,'MARFA 0     ', 115.0000,1,   1,   9,   1,1.07846, -34.3023,1.10000,0.90000,1.10000,0.90000
  1016,'GARDEN CIT~1', 115.0000,2,   1,   9,   1,1.08839, -13.3754,1.10000,0.90000,1.10000,0.90000
  1017,'ODESSA 4 0  ', 115.0000,1,   1,   9,   1,0.93459, -30.8303,1.10000,0.90000,1.10000,0.90000
  1018,'NOTREES 0   ', 115.0000,1,   1,   9,   1,0.90840, -33.6361,1.10000,0.90000,1.10000,0.90000
  1019,'MIDLAND 4 0 ', 115.0000,1,   1,   9,   1,1.00149, -22.4260,1.10000,0.90000,1.10000,0.90000
  1020,'BIG SPRING~1', 115.0000,1,   1,   9,   1,1.03464, -10.4389,1.10000,0.90000,1.10000,0.90000
  1021,'BIG SPRING~2',  13.8000,2,   1,   9,   1,1.02555,  -7.5534,1.10000,0.90000,1.10000,0.90000
  1022,'O DONNELL ~3', 115.0000,1,   1,   9,   1,1.09435,   4.7134,1.10000,0.90000,1.10000,0.90000
  1023,'O DONNELL ~4',  13.8000,2,   1,   9,   1,1.09994,   8.1224,1.10000,0.90000,1.10000,0.90000
  1024,'ODESSA 6 0  ', 115.0000,1,   1,   9,   1,0.89754, -36.1265,1.10000,0.90000,1.10000,0.90000
  1025,'BIG SPRIN~14', 115.0000,1,   1,   9,   1,1.03999, -11.4671,1.10000,0.90000,1.10000,0.90000
  1026,'BIG SPRIN~15',  13.8000,2,   1,   9,   1,1.08337,  -7.6455,1.10000,0.90000,1.10000,0.90000
  1027,'MIDLAND 2 0 ', 115.0000,1,   1,   9,   1,0.96931, -29.1452,1.10000,0.90000,1.10000,0.90000
  1028,'COAHOMA 0   ', 115.0000,1,   1,   9,   1,1.08965,   5.4073,1.10000,0.90000,1.10000,0.90000
  1029,'MIDLAND 3 0 ', 115.0000,1,   1,   9,   1,0.88181, -38.0003,1.10000,0.90000,1.10000,0.90000
  1030,'ALPINE 0    ', 115.0000,1,   1,   9,   1,1.06047, -23.0562,1.10000,0.90000,1.10000,0.90000
  1031,'FORT DAVIS 0', 115.0000,1,   1,   9,   1,1.04888, -31.3999,1.10000,0.90000,1.10000,0.90000
  1032,'MCCAMEY 1 0 ', 115.0000,1,   1,   9,   1,1.09497, -11.9882,1.10000,0.90000,1.10000,0.90000
  1033,'MCCAMEY 1 1 ', 230.0000,2,   1,   9,   1,1.09998, -12.0788,1.10000,0.90000,1.10000,0.90000
  1034,'BIG SPRING~6', 115.0000,1,   1,   9,   1,1.05591, -15.6590,1.10000,0.90000,1.10000,0.90000
  1035,'BIG SPRING~7',  13.8000,2,   1,   9,   1,1.07209, -14.3856,1.10000,0.90000,1.10000,0.90000
  1036,'CRANE 0     ', 115.0000,2,   1,   9,   1,1.09842, -13.7781,1.10000,0.90000,1.10000,0.90000
  1037,'ODESSA 5 0  ', 115.0000,1,   1,   9,   1,0.94528, -29.0165,1.10000,0.90000,1.10000,0.90000
  1038,'FORT STOCK~1', 115.0000,1,   1,   9,   1,1.08413, -13.5597,1.10000,0.90000,1.10000,0.90000
  1039,'FORT STOCK~2',  22.0000,2,   1,   9,   1,1.09996, -11.5085,1.10000,0.90000,1.10000,0.90000
  1040,'ANDREWS 0   ', 115.0000,1,   1,   9,   1,0.93119, -31.6557,1.10000,0.90000,1.10000,0.90000
  1041,'FORSAN 0    ', 115.0000,2,   1,   9,   1,1.03675, -17.5104,1.10000,0.90000,1.10000,0.90000
  1042,'FORSAN 1    ',  13.8000,2,   1,   9,   1,1.03675, -17.5104,1.10000,0.90000,1.10000,0.90000
  1043,'FORSAN 2    ',  13.8000,2,   1,   9,   1,1.05232, -16.1815,1.10000,0.90000,1.10000,0.90000
  1044,'BIG LAKE 0  ', 115.0000,2,   1,   9,   1,1.05048,  -4.7081,1.10000,0.90000,1.10000,0.90000
  1045,'MIDLAND 5 0 ', 115.0000,1,   1,   9,   1,0.96083, -26.5390,1.10000,0.90000,1.10000,0.90000
  1046,'OZONA 0     ', 115.0000,1,   1,   9,   1,1.07582,  -9.1768,1.10000,0.90000,1.10000,0.90000
  1047,'MONAHANS 1 0', 115.0000,1,   1,   9,   1,1.04300, -22.1380,1.10000,0.90000,1.10000,0.90000
  1048,'MONAHANS 1 1',  18.0000,2,   1,   9,   1,1.04300, -22.1380,1.10000,0.90000,1.10000,0.90000
  1049,'MONAHANS 1 2',  18.0000,2,   1,   9,   1,1.04300, -22.1380,1.10000,0.90000,1.10000,0.90000
  1050,'MONAHANS 1 3',  18.0000,2,   1,   9,   1,1.08418, -17.7028,1.10000,0.90000,1.10000,0.90000
  1051,'MONAHANS 1 4',  18.0000,2,   1,   9,   1,1.09581, -16.5069,1.10000,0.90000,1.10000,0.90000
  1052,'MONAHANS 1 5',  18.0000,2,   1,   9,   1,1.07874, -18.4604,1.10000,0.90000,1.10000,0.90000
  1053,'MONAHANS 1 6', 230.0000,2,   1,   9,   1,1.07397, -16.0925,1.10000,0.90000,1.10000,0.90000
  1054,'STANTON 0   ', 115.0000,1,   1,   9,   1,0.97922, -19.8872,1.10000,0.90000,1.10000,0.90000
  1055,'ODONNELL 0  ', 115.0000,1,   1,   9,   1,1.08232,   1.2707,1.10000,0.90000,1.10000,0.90000
  1056,'LENORAH 0   ', 115.0000,1,   1,   9,   1,0.98762, -24.5223,1.10000,0.90000,1.10000,0.90000
  1057,'LENORAH 1   ',  18.0000,2,   1,   9,   1,0.98762, -24.5223,1.10000,0.90000,1.10000,0.90000
  1058,'IRAAN 3 0   ', 115.0000,1,   1,   9,   1,1.09800,  -8.2755,1.10000,0.90000,1.10000,0.90000
  1059,'IRAAN 3 1   ',  22.0000,2,   1,   9,   1,1.09800,  -8.2755,1.10000,0.90000,1.10000,0.90000
  1060,'IRAAN 3 2   ',  22.0000,2,   1,   9,   1,1.09800,  -8.2755,1.10000,0.90000,1.10000,0.90000
  1061,'BIG SPRIN~10', 115.0000,1,   1,   9,   1,1.02195, -15.8760,1.10000,0.90000,1.10000,0.90000
  1062,'BIG SPRIN~11',  13.8000,2,   1,   9,   1,1.02195, -15.8760,1.10000,0.90000,1.10000,0.90000
  1063,'BIG SPRIN~12',  13.8000,2,   1,   9,   1,1.02195, -15.8760,1.10000,0.90000,1.10000,0.90000
  1064,'ODESSA 3 0  ', 115.0000,1,   1,   9,   1,0.97211, -25.6007,1.10000,0.90000,1.10000,0.90000
  1065,'BIG SPRING~4', 115.0000,1,   1,   9,   1,1.03530, -18.0464,1.10000,0.90000,1.10000,0.90000
  1066,'BIG SPRING~5',  13.8000,2,   1,   9,   1,1.07107, -15.0417,1.10000,0.90000,1.10000,0.90000
  1067,'BIG SPRIN~13', 115.0000,1,   1,   9,   1,1.03157, -17.3919,1.10000,0.90000,1.10000,0.90000
  1068,'MIDLAND 1 0 ', 115.0000,1,   1,   9,   1,1.03485, -19.7512,1.10000,0.90000,1.10000,0.90000
  1069,'IRAAN 1 0   ', 115.0000,2,   1,   9,   1,1.10277,  -7.6563,1.10000,0.90000,1.10000,0.90000
  1070,'IRAAN 1 1   ',  13.8000,2,   1,   9,   1,1.09929,  -5.8409,1.10000,0.90000,1.10000,0.90000
  1071,'ODESSA 1 0  ', 115.0000,1,   1,   9,   1,1.02387, -20.1209,1.10000,0.90000,1.10000,0.90000
  1072,'ODESSA 1 1  ',  18.0000,2,   1,   9,   1,1.09999, -13.4397,1.10000,0.90000,1.10000,0.90000
  1073,'ODESSA 1 2  ',  18.0000,2,   1,   9,   1,1.09999,  -8.7840,1.10000,0.90000,1.10000,0.90000
  1074,'ODESSA 1 3  ',  18.0000,2,   1,   9,   1,1.09999, -11.2892,1.10000,0.90000,1.10000,0.90000
  1075,'ODESSA 1 4  ',  18.0000,2,   1,   9,   1,1.09999, -10.5123,1.10000,0.90000,1.10000,0.90000
  1076,'ODESSA 1 5  ',  18.0000,2,   1,   9,   1,1.02387, -20.1209,1.10000,0.90000,1.10000,0.90000
  1077,'ODESSA 1 6  ',  18.0000,2,   1,   9,   1,1.02387, -20.1209,1.10000,0.90000,1.10000,0.90000
  1078,'ODESSA 1 7  ',  18.0000,2,   1,   9,   1,1.09975, -10.9390,1.10000,0.90000,1.10000,0.90000
  1079,'ODESSA 1 8  ', 500.0000,2,   1,   9,   1,1.09198, -13.1590,1.10000,0.90000,1.10000,0.90000
  1080,'ODESSA 1 9  ',  18.0000,2,   1,   9,   1,1.09998, -13.2003,1.10000,0.90000,1.10000,0.90000
  1081,'ODESSA 1 10 ', 230.0000,2,   1,   9,   1,1.08893, -14.1633,1.10000,0.90000,1.10000,0.90000
  1082,'FORT STOCK~3', 115.0000,2,   1,   9,   1,1.09996, -10.8046,1.10000,0.90000,1.10000,0.90000
  1083,'FORT STOCK~4', 115.0000,1,   1,   9,   1,1.06059, -17.1842,1.10000,0.90000,1.10000,0.90000
  1084,'BIG SPRING~3', 115.0000,2,   1,   9,   1,1.02363, -12.8690,1.10000,0.90000,1.10000,0.90000
  1085,'KERMIT 0    ', 115.0000,1,   1,   9,   1,0.99648, -27.3798,1.10000,0.90000,1.10000,0.90000
  1086,'PECOS 0     ', 115.0000,1,   1,   9,   1,0.97232, -32.6552,1.10000,0.90000,1.10000,0.90000
  1087,'SHEFFIELD 0 ', 115.0000,1,   1,   9,   1,1.09300,  -8.8189,1.10000,0.90000,1.10000,0.90000
  1088,'MCCAMEY 2 0 ', 115.0000,2,   1,   9,   1,1.08553, -15.3826,1.10000,0.90000,1.10000,0.90000
  1089,'LAMESA 0    ', 115.0000,2,   1,   9,   1,1.07057,  -6.4403,1.10000,0.90000,1.10000,0.90000
  1090,'GOLDSMITH 0 ', 115.0000,2,   1,   9,   1,0.94822, -31.6856,1.10000,0.90000,1.10000,0.90000
  1091,'RALLS 2 0   ', 161.0000,1,   1,   9,   1,0.98480,  28.7085,1.10000,0.90000,1.10000,0.90000
  2001,'PARIS 3 0   ', 161.0000,1,   2,  11,   1,1.07648, -18.0816,1.10000,0.90000,1.10000,0.90000
  2002,'SAVOY 0     ', 500.0000,1,   2,  11,   1,1.07924, -17.4941,1.10000,0.90000,1.10000,0.90000
  2003,'SAVOY 1     ', 161.0000,1,   2,  11,   1,1.07626, -18.2902,1.10000,0.90000,1.10000,0.90000
  2004,'SAVOY 2     ',  13.8000,2,   2,  11,   1,1.07924, -17.4941,1.10000,0.90000,1.10000,0.90000
  2005,'SAVOY 3     ',  13.8000,2,   2,  11,   1,1.07924, -17.4941,1.10000,0.90000,1.10000,0.90000
  2006,'SAVOY 4     ',  13.8000,2,   2,  11,   1,1.07924, -17.4941,1.10000,0.90000,1.10000,0.90000
  2007,'HONEY GROV~1', 161.0000,1,   2,  11,   1,1.07756, -17.5583,1.10000,0.90000,1.10000,0.90000
  2008,'MEMPHIS 0   ', 161.0000,1,   2,  10,   1,1.04326,  32.4942,1.10000,0.90000,1.10000,0.90000
  2009,'IOWA PARK 0 ', 161.0000,1,   2,  11,   1,1.01705,   4.2728,1.10000,0.90000,1.10000,0.90000
  2010,'VERNON 2 0  ', 161.0000,2,   2,  10,   1,1.06785,  38.0325,1.10000,0.90000,1.10000,0.90000
  2011,'PANHANDLE ~2', 500.0000,2,   2,  10,   1,1.09153,   7.9004,1.10000,0.90000,1.10000,0.90000
  2012,'PANHANDLE ~3', 161.0000,2,   2,  10,   1,1.07672,  13.3136,1.10000,0.90000,1.10000,0.90000
  2013,'PANHANDLE ~4',  18.0000,2,   2,  10,   1,1.08394,   8.9195,1.10000,0.90000,1.10000,0.90000
  2014,'CHILDRESS 0 ', 161.0000,1,   2,  10,   1,1.04132,  43.5446,1.10000,0.90000,1.10000,0.90000
  2015,'FORESTBURG 0', 161.0000,1,   2,  11,   1,1.05622, -15.0563,1.10000,0.90000,1.10000,0.90000
  2016,'SHERMAN 3 0 ', 161.0000,1,   2,  11,   1,1.06447, -19.7190,1.10000,0.90000,1.10000,0.90000
  2017,'PANHANDLE ~7', 500.0000,1,   2,  10,   1,1.08867,   6.4604,1.10000,0.90000,1.10000,0.90000
  2018,'PANHANDLE ~8', 161.0000,1,   2,  10,   1,1.07756,   8.7038,1.10000,0.90000,1.10000,0.90000
  2019,'PANHANDLE ~9',  20.0000,2,   2,  10,   1,1.08867,   6.4604,1.10000,0.90000,1.10000,0.90000
  2020,'WICHITA F~12', 161.0000,1,   2,  11,   1,1.04813,  -5.9431,1.10000,0.90000,1.10000,0.90000
  2021,'PARIS 2 0   ', 500.0000,1,   2,  11,   1,1.08011, -16.5178,1.10000,0.90000,1.10000,0.90000
  2022,'PARIS 2 1   ', 161.0000,1,   2,  11,   1,1.07921, -17.4460,1.10000,0.90000,1.10000,0.90000
  2023,'PARIS 2 2   ',  13.8000,2,   2,  11,   1,1.07728, -16.0959,1.10000,0.90000,1.10000,0.90000
  2024,'PARIS 2 3   ',  13.8000,2,   2,  11,   1,1.07605, -15.9166,1.10000,0.90000,1.10000,0.90000
  2025,'WICHITA F~10', 161.0000,1,   2,  11,   1,1.05158,  -6.2658,1.10000,0.90000,1.10000,0.90000
  2026,'WHEELER 0   ', 161.0000,1,   2,  10,   1,1.08195,   9.6461,1.10000,0.90000,1.10000,0.90000
  2027,'DEPORT 0    ', 161.0000,1,   2,  11,   1,1.07749, -18.3055,1.10000,0.90000,1.10000,0.90000
  2028,'WICHITA FA~9', 161.0000,1,   2,  11,   1,1.03528,  -4.7782,1.10000,0.90000,1.10000,0.90000
  2029,'SILVERTON 0 ', 161.0000,2,   2,  10,   1,1.07327,  52.7624,1.10000,0.90000,1.10000,0.90000
  2030,'BONHAM 0    ', 161.0000,1,   2,  11,   1,1.06881, -19.0072,1.10000,0.90000,1.10000,0.90000
  2031,'MATADOR 0   ', 161.0000,1,   2,  10,   1,1.01805,  23.4560,1.10000,0.90000,1.10000,0.90000
  2032,'ARTHUR CIT~1', 161.0000,1,   2,  11,   1,1.07844, -17.3614,1.10000,0.90000,1.10000,0.90000
  2033,'LEONARD 0   ', 161.0000,1,   2,  11,   1,1.06236, -20.0667,1.10000,0.90000,1.10000,0.90000
  2034,'GORDONVILL~1', 161.0000,1,   2,  11,   1,1.06588, -19.6699,1.10000,0.90000,1.10000,0.90000
  2035,'KNOX CITY 0 ', 161.0000,2,   2,  10,   1,1.07493,  35.0045,1.10000,0.90000,1.10000,0.90000
  2036,'WICHITA F~13', 161.0000,1,   2,  11,   1,1.04314,  -4.4282,1.10000,0.90000,1.10000,0.90000
  2037,'LINDSAY 0   ', 161.0000,1,   2,  11,   1,1.05757, -15.1094,1.10000,0.90000,1.10000,0.90000
  2038,'ECTOR 0     ', 161.0000,1,   2,  11,   1,1.07446, -18.5907,1.10000,0.90000,1.10000,0.90000
  2039,'SUNSET 0    ', 161.0000,1,   2,  11,   1,1.05314, -14.4851,1.10000,0.90000,1.10000,0.90000
  2040,'CLARKSVILL~1', 161.0000,1,   2,  11,   1,1.08048, -17.7463,1.10000,0.90000,1.10000,0.90000
  2041,'PANHANDLE ~5', 161.0000,1,   2,  10,   1,1.08145,  14.3206,1.10000,0.90000,1.10000,0.90000
  2042,'PANHANDLE ~6',  18.0000,2,   2,  10,   1,1.08035,  15.4254,1.10000,0.90000,1.10000,0.90000
  2043,'SADLER 0    ', 161.0000,1,   2,  11,   1,1.06532, -19.7006,1.10000,0.90000,1.10000,0.90000
  2044,'WHITESBORO 0', 161.0000,1,   2,  11,   1,1.06411, -17.2620,1.10000,0.90000,1.10000,0.90000
  2045,'SHEPPARD A~1', 161.0000,1,   2,  11,   1,1.04540,  -5.7204,1.10000,0.90000,1.10000,0.90000
  2046,'POTTSBORO 0 ', 161.0000,1,   2,  11,   1,1.06648, -19.6138,1.10000,0.90000,1.10000,0.90000
  2047,'BELLS 0     ', 161.0000,1,   2,  11,   1,1.07465, -18.5353,1.10000,0.90000,1.10000,0.90000
  2048,'CROSBYTON 0 ', 161.0000,1,   2,  10,   1,1.01222,  28.3415,1.10000,0.90000,1.10000,0.90000
  2049,'ELECTRA 0   ', 161.0000,2,   2,  10,   1,1.06321,  28.7803,1.10000,0.90000,1.10000,0.90000
  2050,'PATTONVILL~1', 161.0000,1,   2,  11,   1,1.06851, -19.7997,1.10000,0.90000,1.10000,0.90000
  2051,'HENRIETTA 0 ', 161.0000,1,   2,  11,   1,1.04190,  -9.2392,1.10000,0.90000,1.10000,0.90000
  2052,'PANHANDLE~13', 161.0000,2,   2,  10,   1,1.07156,  23.8132,1.10000,0.90000,1.10000,0.90000
  2053,'BOWIE 0     ', 161.0000,1,   2,  11,   1,1.06143, -15.3487,1.10000,0.90000,1.10000,0.90000
  2054,'WICHITA FA~1', 500.0000,1,   2,  11,   1,1.06161,  -6.8364,1.10000,0.90000,1.10000,0.90000
  2055,'WICHITA FA~2', 161.0000,1,   2,  11,   1,1.05249,  -6.1768,1.10000,0.90000,1.10000,0.90000
  2056,'WICHITA FA~3',  18.0000,2,   2,  11,   1,1.06161,  -6.8364,1.10000,0.90000,1.10000,0.90000
  2057,'WICHITA FA~4',  18.0000,2,   2,  11,   1,1.07445,  -6.8495,1.10000,0.90000,1.10000,0.90000
  2058,'WHITE DEER 0', 161.0000,2,   2,  10,   1,1.08286,  14.6078,1.10000,0.90000,1.10000,0.90000
  2059,'WHITE DEER 1',  13.8000,2,   2,  10,   1,1.08423,  16.0246,1.10000,0.90000,1.10000,0.90000
  2060,'ROXTON 0    ', 161.0000,1,   2,  11,   1,1.06794, -19.2120,1.10000,0.90000,1.10000,0.90000
  2061,'VERNON 1 0  ', 161.0000,2,   2,  10,   1,1.06750,  35.9060,1.10000,0.90000,1.10000,0.90000
  2062,'VERNON 1 1  ',  18.0000,2,   2,  10,   1,1.06821,  38.3977,1.10000,0.90000,1.10000,0.90000
  2063,'DENISON 2 0 ', 161.0000,1,   2,  11,   1,1.06756, -19.4689,1.10000,0.90000,1.10000,0.90000
  2064,'SUMNER 0    ', 161.0000,1,   2,  11,   1,1.07376, -18.3061,1.10000,0.90000,1.10000,0.90000
  2065,'GAINESVILL~1', 161.0000,1,   2,  11,   1,1.05771, -16.5760,1.10000,0.90000,1.10000,0.90000
  2066,'ASPERMONT 0 ', 161.0000,1,   2,  10,   1,1.03804,  24.3298,1.10000,0.90000,1.10000,0.90000
  2067,'WICHITA F~11', 161.0000,1,   2,  11,   1,1.05144,  -6.2682,1.10000,0.90000,1.10000,0.90000
  2068,'WINDTHORST 0', 161.0000,2,   2,  11,   1,1.05698,  -5.4654,1.10000,0.90000,1.10000,0.90000
  2069,'HOWE 0      ', 161.0000,1,   2,  11,   1,1.06659, -19.3553,1.10000,0.90000,1.10000,0.90000
  2070,'ARCHER 2 0  ', 161.0000,1,   2,  11,   1,1.05905,  -6.0855,1.10000,0.90000,1.10000,0.90000
  2071,'ARCHER 2 1  ',  18.0000,2,   2,  11,   1,1.04989,  -4.5738,1.10000,0.90000,1.10000,0.90000
  2072,'COLLINSVIL~1', 161.0000,1,   2,  11,   1,1.07001, -18.8020,1.10000,0.90000,1.10000,0.90000
  2073,'JAYTON 0    ', 161.0000,1,   2,  10,   1,1.03349,  15.9192,1.10000,0.90000,1.10000,0.90000
  2074,'JAYTON 1    ', 115.0000,1,   2,  10,   1,1.04791,  13.7484,1.10000,0.90000,1.10000,0.90000
  2075,'JAYTON 2    ', 115.0000,1,   2,  10,   1,1.04791,  13.7484,1.10000,0.90000,1.10000,0.90000
  2076,'JAYTON 3    ',  24.0000,2,   2,  10,   1,1.03837,  16.3334,1.10000,0.90000,1.10000,0.90000
  2077,'MUENSTER 1 0', 161.0000,2,   2,  11,   1,1.05903, -13.2626,1.10000,0.90000,1.10000,0.90000
  2078,'MUENSTER 1 1',  13.8000,2,   2,  11,   1,1.05986, -11.8692,1.10000,0.90000,1.10000,0.90000
  2079,'PADUCAH 0   ', 161.0000,1,   2,  10,   1,1.04357,  34.0671,1.10000,0.90000,1.10000,0.90000
  2080,'NOCONA 0    ', 161.0000,1,   2,  11,   1,1.04865, -11.4363,1.10000,0.90000,1.10000,0.90000
  2081,'DODD CITY 0 ', 161.0000,1,   2,  11,   1,1.07081, -19.1177,1.10000,0.90000,1.10000,0.90000
  2082,'WICHITA FA~5', 161.0000,1,   2,  11,   1,1.03513,  -2.3868,1.10000,0.90000,1.10000,0.90000
  2083,'WICHITA FA~6',  20.0000,2,   2,  11,   1,1.04921,  -1.9546,1.10000,0.90000,1.10000,0.90000
  2084,'WICHITA FA~7',  20.0000,2,   2,  11,   1,1.03513,  -2.3868,1.10000,0.90000,1.10000,0.90000
  2085,'WICHITA FA~8',  20.0000,2,   2,  11,   1,1.03513,  -2.3868,1.10000,0.90000,1.10000,0.90000
  2086,'MONTAGUE 0  ', 161.0000,1,   2,  11,   1,1.05153, -13.3203,1.10000,0.90000,1.10000,0.90000
  2087,'SPUR 0      ', 161.0000,1,   2,  10,   1,1.02483,  19.3687,1.10000,0.90000,1.10000,0.90000
  2088,'ARCHER 1 0  ', 161.0000,1,   2,  11,   1,1.05757,  -5.6300,1.10000,0.90000,1.10000,0.90000
  2089,'ARCHER 1 1  ',  24.0000,2,   2,  11,   1,1.04947,  -4.1494,1.10000,0.90000,1.10000,0.90000
  2090,'ANNONA 0    ', 161.0000,1,   2,  11,   1,1.07769, -18.6434,1.10000,0.90000,1.10000,0.90000
  2091,'SEYMOUR 0   ', 161.0000,2,   2,  10,   1,1.07154,  39.6432,1.10000,0.90000,1.10000,0.90000
  2092,'DENISON 1 0 ', 161.0000,1,   2,  11,   1,1.07104, -19.0180,1.10000,0.90000,1.10000,0.90000
  2093,'PANHANDLE~10', 161.0000,1,   2,  10,   1,1.07683,  11.1414,1.10000,0.90000,1.10000,0.90000
  2094,'PANHANDLE~11',  13.8000,2,   2,  10,   1,1.07683,  11.1414,1.10000,0.90000,1.10000,0.90000
  2095,'PANHANDLE~12',  13.8000,2,   2,  10,   1,1.07683,  11.1414,1.10000,0.90000,1.10000,0.90000
  2096,'RALLS 1 0   ', 500.0000,1,   2,  10,   1,1.07616,   8.9930,1.10000,0.90000,1.10000,0.90000
  2097,'RALLS 1 1   ', 230.0000,1,   2,  10,   1,1.07147,   9.3839,1.10000,0.90000,1.10000,0.90000
  2098,'RALLS 1 2   ', 161.0000,1,   2,  10,   1,0.98076,  25.4214,1.10000,0.90000,1.10000,0.90000
  2099,'RALLS 1 3   ',  18.0000,2,   2,  10,   1,1.07625,   9.0549,1.10000,0.90000,1.10000,0.90000
  2100,'RALLS 1 4   ',  18.0000,2,   2,  10,   1,1.07662,  10.1237,1.10000,0.90000,1.10000,0.90000
  2101,'SHERMAN 1 0 ', 500.0000,1,   2,  11,   1,1.07773, -17.6470,1.10000,0.90000,1.10000,0.90000
  2102,'SHERMAN 1 1 ', 161.0000,1,   2,  11,   1,1.07484, -17.9045,1.10000,0.90000,1.10000,0.90000
  2103,'SHERMAN 1 2 ',  20.0000,2,   2,  11,   1,1.07773, -17.6470,1.10000,0.90000,1.10000,0.90000
  2104,'SHERMAN 1 3 ',  20.0000,2,   2,  11,   1,1.07773, -17.6470,1.10000,0.90000,1.10000,0.90000
  2105,'SHERMAN 1 4 ',  20.0000,2,   2,  11,   1,1.07773, -17.6470,1.10000,0.90000,1.10000,0.90000
  2106,'WHITEWRIGH~1', 161.0000,1,   2,  11,   1,1.06270, -19.8596,1.10000,0.90000,1.10000,0.90000
  2107,'SHERMAN 2 0 ', 161.0000,1,   2,  11,   1,1.07321, -18.0941,1.10000,0.90000,1.10000,0.90000
  2108,'ROCHESTER 0 ', 161.0000,1,   2,  10,   1,1.08196,  -9.4068,1.10000,0.90000,1.10000,0.90000
  2109,'BURKBURNET~1', 161.0000,1,   2,  11,   1,1.02082,   0.4954,1.10000,0.90000,1.10000,0.90000
...
 0 /End of Bus data, Begin Load data
  1001,'1 ',1,   1,   9,    57.372,    16.262,     0.000,     0.000,     0.000,     0.000,   1,1,0
  1002,'1 ',1,   1,   9,    33.564,     9.518,     0.000,     0.000,     0.000,     0.000,   1,1,0
  1007,'1 ',1,   1,   9,    11.914,     3.382,     0.000,     0.000,     0.000,     0.000,   1,1,0
  1012,'1 ',1,   1,   9,     4.121,     1.172,     0.000,     0.000,     0.000,     0.000,   1,1,0
  1013,'1 ',1,   1,   9,     1.305,     0.358,     0.000,     0.000,     0.000,     0.000,   1,1,0
  1013,'2 ',1,   1,   9,     3.891,     1.101,     0.000,     0.000,     0.000,     0.000,   1,1,0
  1013,'3 ',1,   1,   9,    69.631,    19.737,     0.000,     0.000,     0.000,     0.000,   1,1,0
  1014,'1 ',1,   1,   9,     5.223,     1.482,     0.000,     0.000,     0.000,     0.000,   1,1,0
  1015,'1 ',1,   1,   9,    16.357,     4.639,     0.000,     0.000,     0.000,     0.000,   1,1,0
  1016,'1 ',1,   1,   9,     7.751,     2.199,     0.000,     0.000,     0.000,     0.000,   1,1,0
  1017,'1 ',1,   1,   9,    53.913,    15.286,     0.000,     0.000,     0.000,     0.000,   1,1,0
  1018,'1 ',1,   1,   9,     0.186,     0.053,     0.000,     0.000,     0.000,     0.000,   1,1,0
  1019,'1 ',1,   1,   9,   137.632,    38.986,     0.000,     0.000,     0.000,     0.000,   1,1,0
  1024,'1 ',1,   1,   9,   168.754,    47.810,     0.000,     0.000,     0.000,     0.000,   1,1,0
  1027,'1 ',1,   1,   9,     0.760,     0.215,     0.000,     0.000,     0.000,     0.000,   1,1,0
  1027,'2 ',1,   1,   9,   127.497,    36.129,     0.000,     0.000,     0.000,     0.000,   1,1,0
  1028,'1 ',1,   1,   9,     1.948,     0.545,     0.000,     0.000,     0.000,     0.000,   1,1,0
  1028,'2 ',1,   1,   9,     1.021,     0.286,     0.000,     0.000,     0.000,     0.000,   1,1,0
  1028,'3 ',1,   1,   9,     6.674,     1.893,     0.000,     0.000,     0.000,     0.000,   1,1,0
  1028,'4 ',1,   1,   9,     4.004,     1.130,     0.000,     0.000,     0.000,     0.000,   1,1,0
  1029,'1 ',1,   1,   9,   252.930,    71.671,     0.000,     0.000,     0.000,     0.000,   1,1,0
  1030,'1 ',1,   1,   9,    24.054,     6.814,     0.000,     0.000,     0.000,     0.000,   1,1,0
  1030,'2 ',1,   1,   9,     1.649,     0.470,     0.000,     0.000,     0.000,     0.000,   1,1,0
  1031,'1 ',1,   1,   9,    10.309,     2.920,     0.000,     0.000,     0.000,     0.000,   1,1,0
  1036,'1 ',1,   1,   9,     2.162,     0.614,     0.000,     0.000,     0.000,     0.000,   1,1,0
  1036,'2 ',1,   1,   9,    26.660,     7.544,     0.000,     0.000,     0.000,     0.000,   1,1,0
  1037,'1 ',1,   1,   9,   274.202,    77.696,     0.000,     0.000,     0.000,     0.000,   1,1,0
  1040,'1 ',1,   1,   9,    76.554,    21.693,     0.000,     0.000,     0.000,     0.000,   1,1,0
  1044,'1 ',1,   1,   9,     7.227,     2.051,     0.000,     0.000,     0.000,     0.000,   1,1,0
  1044,'2 ',1,   1,   9,    16.296,     4.615,     0.000,     0.000,     0.000,     0.000,   1,1,0
  1045,'1 ',1,   1,   9,   201.556,    57.117,     0.000,     0.000,     0.000,     0.000,   1,1,0
  1046,'1 ',1,   1,   9,     0.025,     0.000,     0.000,     0.000,     0.000,     0.000,   1,1,0
  1046,'2 ',1,   1,   9,    27.828,     7.886,     0.000,     0.000,     0.000,     0.000,   1,1,0
  1054,'1 ',1,   1,   9,     3.774,     1.060,     0.000,     0.000,     0.000,     0.000,   1,1,0
  1054,'2 ',1,   1,   9,     1.102,     0.318,     0.000,     0.000,     0.000,     0.000,   1,1,0
  1054,'3 ',1,   1,   9,    26.909,     7.634,     0.000,     0.000,     0.000,     0.000,   1,1,0
  1055,'1 ',1,   1,   9,    12.043,     3.419,     0.000,     0.000,     0.000,     0.000,   1,1,0
  1058,'1 ',1,   1,   9,     9.352,     2.652,     0.000,     0.000,     0.000,     0.000,   1,1,0
  1058,'2 ',1,   1,   9,    21.426,     6.060,     0.000,     0.000,     0.000,     0.000,   1,1,0
  1064,'1 ',1,   1,   9,    12.971,     3.681,     0.000,     0.000,     0.000,     0.000,   1,1,0
  1064,'2 ',1,   1,   9,   230.625,    65.348,     0.000,     0.000,     0.000,     0.000,   1,1,0
  1067,'1 ',1,   1,   9,   139.048,    39.394,     0.000,     0.000,     0.000,     0.000,   1,1,0
  1068,'1 ',1,   1,   9,     1.578,     0.457,     0.000,     0.000,     0.000,     0.000,   1,1,0
  1068,'2 ',1,   1,   9,   134.249,    38.050,     0.000,     0.000,     0.000,     0.000,   1,1,0
  1071,'1 ',1,   1,   9,   246.752,    69.903,     0.000,     0.000,     0.000,     0.000,   1,1,0
  1083,'1 ',1,   1,   9,    87.014,    24.656,     0.000,     0.000,     0.000,     0.000,   1,1,0
  1085,'1 ',1,   1,   9,     6.188,     1.759,     0.000,     0.000,     0.000,     0.000,   1,1,0
  1085,'2 ',1,   1,   9,    38.951,    11.041,     0.000,     0.000,     0.000,     0.000,   1,1,0
  1086,'1 ',1,   1,   9,   109.526,    31.033,     0.000,     0.000,     0.000,     0.000,   1,1,0
  1087,'1 ',1,   1,   9,     2.675,     0.764,     0.000,     0.000,     0.000,     0.000,   1,1,0
  1089,'1 ',1,   1,   9,     1.292,     0.374,     0.000,     0.000,     0.000,     0.000,   1,1,0
  1089,'2 ',1,   1,   9,    61.931,    17.550,     0.000,     0.000,     0.000,     0.000,   1,1,0
  1091,'1 ',1,   1,   9,     7.143,     2.032,     0.000,     0.000,     0.000,     0.000,   1,1,0
  1091,'2 ',1,   1,   9,    10.480,     2.973,     0.000,     0.000,     0.000,     0.000,   1,1,0
  2001,'1 ',1,   2,  11,     7.351,     2.080,     0.000,     0.000,     0.000,     0.000,   1,1,0
  2001,'2 ',1,   2,  11,    17.491,     4.957,     0.000,     0.000,     0.000,     0.000,   1,1,0
  2007,'1 ',1,   2,  11,     3.002,     0.850,     0.000,     0.000,     0.000,     0.000,   1,1,0
  2008,'1 ',1,   2,  10,     4.944,     1.399,     0.000,     0.000,     0.000,     0.000,   1,1,0
  2009,'1 ',1,   2,  11,    24.645,     6.983,     0.000,     0.000,     0.000,     0.000,   1,1,0
  2010,'1 ',1,   2,  10,     2.854,     0.810,     0.000,     0.000,     0.000,     0.000,   1,1,0
  2010,'2 ',1,   2,  10,     5.367,     1.519,     0.000,     0.000,     0.000,     0.000,   1,1,0
  2010,'3 ',1,   2,  10,     1.636,     0.464,     0.000,     0.000,     0.000,     0.000,   1,1,0
  2010,'4 ',1,   2,  10,     0.106,     0.028,     0.000,     0.000,     0.000,     0.000,   1,1,0
  2010,'5 ',1,   2,  10,    21.764,     6.165,     0.000,     0.000,     0.000,     0.000,   1,1,0
  2014,'1 ',1,   2,  10,     2.349,     0.668,     0.000,     0.000,     0.000,     0.000,   1,1,0
  2014,'2 ',1,   2,  10,    14.148,     4.011,     0.000,     0.000,     0.000,     0.000,   1,1,0
  2015,'1 ',1,   2,  11,     2.449,     0.694,     0.000,     0.000,     0.000,     0.000,   1,1,0
  2016,'1 ',1,   2,  11,    21.872,     6.198,     0.000,     0.000,     0.000,     0.000,   1,1,0
  2020,'1 ',1,   2,  11,    15.199,     4.306,     0.000,     0.000,     0.000,     0.000,   1,1,0
  2022,'1 ',1,   2,  11,     2.593,     0.736,     0.000,     0.000,     0.000,     0.000,   1,1,0
  2025,'1 ',1,   2,  11,    17.580,     4.983,     0.000,     0.000,     0.000,     0.000,   1,1,0
  2026,'1 ',1,   2,  10,     1.514,     0.428,     0.000,     0.000,     0.000,     0.000,   1,1,0
  2026,'2 ',1,   2,  10,     0.573,     0.163,     0.000,     0.000,     0.000,     0.000,   1,1,0
  2026,'3 ',1,   2,  10,     4.325,     1.225,     0.000,     0.000,     0.000,     0.000,   1,1,0
  2026,'4 ',1,   2,  10,     4.790,     1.357,     0.000,     0.000,     0.000,     0.000,   1,1,0
  2027,'1 ',1,   2,  11,     1.287,     0.366,     0.000,     0.000,     0.000,     0.000,   1,1,0
  2028,'1 ',1,   2,  11,     6.284,     1.778,     0.000,     0.000,     0.000,     0.000,   1,1,0
  2029,'1 ',1,   2,  10,     1.981,     0.563,     0.000,     0.000,     0.000,     0.000,   1,1,0
  2030,'1 ',1,   2,  11,     1.058,     0.301,     0.000,     0.000,     0.000,     0.000,   1,1,0
  2030,'2 ',1,   2,  11,    11.701,     3.316,     0.000,     0.000,     0.000,     0.000,   1,1,0
  2031,'1 ',1,   2,  10,     0.263,     0.073,     0.000,     0.000,     0.000,     0.000,   1,1,0
  2031,'2 ',1,   2,  10,     0.422,     0.120,     0.000,     0.000,     0.000,     0.000,   1,1,0
  2031,'3 ',1,   2,  10,     1.233,     0.349,     0.000,     0.000,     0.000,     0.000,   1,1,0
  2032,'1 ',1,   2,  11,     1.190,     0.338,     0.000,     0.000,     0.000,     0.000,   1,1,0
  2033,'1 ',1,   2,  11,     0.286,     0.081,     0.000,     0.000,     0.000,     0.000,   1,1,0
  2033,'2 ',1,   2,  11,     2.698,     0.765,     0.000,     0.000,     0.000,     0.000,   1,1,0
  2034,'1 ',1,   2,  11,     2.208,     0.624,     0.000,     0.000,     0.000,     0.000,   1,1,0
  2035,'1 ',1,   2,  10,     2.458,     0.699,     0.000,     0.000,     0.000,     0.000,   1,1,0
  2035,'2 ',1,   2,  10,     0.314,     0.089,     0.000,     0.000,     0.000,     0.000,   1,1,0
  2036,'1 ',1,   2,  11,    20.516,     5.811,     0.000,     0.000,     0.000,     0.000,   1,1,0
  2037,'1 ',1,   2,  11,     0.218,     0.063,     0.000,     0.000,     0.000,     0.000,   1,1,0
  2037,'2 ',1,   2,  11,     0.889,     0.253,     0.000,     0.000,     0.000,     0.000,   1,1,0
  2038,'1 ',1,   2,  11,     0.864,     0.246,     0.000,     0.000,     0.000,     0.000,   1,1,0
  2039,'1 ',1,   2,  11,     1.264,     0.359,     0.000,     0.000,     0.000,     0.000,   1,1,0
  2040,'1 ',1,   2,  11,     7.750,     2.198,     0.000,     0.000,     0.000,     0.000,   1,1,0
  2043,'1 ',1,   2,  11,     1.722,     0.488,     0.000,     0.000,     0.000,     0.000,   1,1,0
  2044,'1 ',1,   2,  11,    10.087,     2.857,     0.000,     0.000,     0.000,     0.000,   1,1,0
  2045,'1 ',1,   2,  11,     6.490,     1.837,     0.000,     0.000,     0.000,     0.000,   1,1,0
  2046,'1 ',1,   2,  11,     8.569,     2.428,     0.000,     0.000,     0.000,     0.000,   1,1,0
  2047,'1 ',1,   2,  11,     3.547,     1.007,     0.000,     0.000,     0.000,     0.000,   1,1,0
  2047,'2 ',1,   2,  11,     2.092,     0.592,     0.000,     0.000,     0.000,     0.000,   1,1,0
  2048,'1 ',1,   2,  10,     3.196,     0.906,     0.000,     0.000,     0.000,     0.000,   1,1,0
  2049,'1 ',1,   2,  10,     0.158,     0.045,     0.000,     0.000,     0.000,     0.000,   1,1,0
  2049,'2 ',1,   2,  10,     0.187,     0.052,     0.000,     0.000,     0.000,     0.000,   1,1,0
  2049,'3 ',1,   2,  10,     3.381,     0.959,     0.000,     0.000,     0.000,     0.000,   1,1,0
  2050,'1 ',1,   2,  11,     1.571,     0.446,     0.000,     0.000,     0.000,     0.000,   1,1,0
  2051,'1 ',1,   2,  11,    10.281,     2.914,     0.000,     0.000,     0.000,     0.000,   1,1,0
  2052,'1 ',1,   2,  10,     6.138,     1.739,     0.000,     0.000,     0.000,     0.000,   1,1,0
  2052,'2 ',1,   2,  10,     9.979,     2.829,     0.000,     0.000,     0.000,     0.000,   1,1,0
  2053,'1 ',1,   2,  11,     9.271,     2.626,     0.000,     0.000,     0.000,     0.000,   1,1,0
  2055,'1 ',1,   2,  11,    11.991,     3.398,     0.000,     0.000,     0.000,     0.000,   1,1,0
  2060,'1 ',1,   2,  11,     1.380,     0.392,     0.000,     0.000,     0.000,     0.000,   1,1,0
  2063,'1 ',1,   2,  11,    24.438,     6.923,     0.000,     0.000,     0.000,     0.000,   1,1,0
  2064,'1 ',1,   2,  11,     2.891,     0.817,     0.000,     0.000,     0.000,     0.000,   1,1,0
  2064,'2 ',1,   2,  11,     1.236,     0.349,     0.000,     0.000,     0.000,     0.000,   1,1,0
  2065,'1 ',1,   2,  11,    45.621,    12.925,     0.000,     0.000,     0.000,     0.000,   1,1,0
  2066,'1 ',1,   2,  10,     1.733,     0.492,     0.000,     0.000,     0.000,     0.000,   1,1,0
  2066,'2 ',1,   2,  10,     1.087,     0.308,     0.000,     0.000,     0.000,     0.000,   1,1,0
  2066,'3 ',1,   2,  10,     0.223,     0.064,     0.000,     0.000,     0.000,     0.000,   1,1,0
  2067,'1 ',1,   2,  11,    28.108,     7.963,     0.000,     0.000,     0.000,     0.000,   1,1,0
  2068,'1 ',1,   2,  11,     3.627,     1.026,     0.000,     0.000,     0.000,     0.000,   1,1,0
  2069,'1 ',1,   2,  11,     7.136,     2.022,     0.000,     0.000,     0.000,     0.000,   1,1,0
  2072,'1 ',1,   2,  11,     2.575,     0.729,     0.000,     0.000,     0.000,     0.000,   1,1,0
  2079,'1 ',1,   2,  10,     2.502,     0.709,     0.000,     0.000,     0.000,     0.000,   1,1,0
  2080,'1 ',1,   2,  11,     6.673,     1.892,     0.000,     0.000,     0.000,     0.000,   1,1,0
  2081,'1 ',1,   2,  11,     1.329,     0.375,     0.000,     0.000,     0.000,     0.000,   1,1,0
  2082,'1 ',1,   2,  11,    11.253,     3.189,     0.000,     0.000,     0.000,     0.000,   1,1,0
  2086,'1 ',1,   2,  11,     0.522,     0.148,     0.000,     0.000,     0.000,     0.000,   1,1,0
  2087,'1 ',1,   2,  10,     3.511,     0.996,     0.000,     0.000,     0.000,     0.000,   1,1,0
  2090,'1 ',1,   2,  11,     0.857,     0.244,     0.000,     0.000,     0.000,     0.000,   1,1,0
  2091,'1 ',1,   2,  10,     2.999,     0.850,     0.000,     0.000,     0.000,     0.000,   1,1,0
  2092,'1 ',1,   2,  11,     6.578,     1.863,     0.000,     0.000,     0.000,     0.000,   1,1,0
  2106,'1 ',1,   2,  11,     4.072,     1.154,     0.000,     0.000,     0.000,     0.000,   1,1,0
  2107,'1 ',1,   2,  11,    20.685,     5.861,     0.000,     0.000,     0.000,     0.000,   1,1,0
  2108,'1 ',1,   2,  10,     0.996,     0.284,     0.000,     0.000,     0.000,     0.000,   1,1,0
  2109,'1 ',1,   2,  11,     6.306,     1.787,     0.000,     0.000,     0.000,     0.000,   1,1,0
  2110,'1 ',1,   2,  11,     1.803,     0.510,     0.000,     0.000,     0.000,     0.000,   1,1,0
  2111,'1 ',1,   2,  11,     1.487,     0.421,     0.000,     0.000,     0.000,     0.000,   1,1,0
  2111,'2 ',1,   2,  11,     1.477,     0.419,     0.000,     0.000,     0.000,     0.000,   1,1,0
  2112,'1 ',1,   2,  11,     2.445,     0.695,     0.000,     0.000,     0.000,     0.000,   1,1,0
  2114,'1 ',1,   2,  11,    14.066,     3.985,     0.000,     0.000,     0.000,     0.000,   1,1,0
  2121,'1 ',1,   2,  11,     0.944,     0.267,     0.000,     0.000,     0.000,     0.000,   1,1,0
  2122,'1 ',1,   2,  11,     1.938,     0.548,     0.000,     0.000,     0.000,     0.000,   1,1,0
  2124,'1 ',1,   2,  11,     6.966,     1.973,     0.000,     0.000,     0.000,     0.000,   1,1,0
  2125,'1 ',1,   2,  11,     1.104,     0.313,     0.000,     0.000,     0.000,     0.000,   1,1,0
  2126,'1 ',1,   2,  11,     8.810,     2.493,     0.000,     0.000,     0.000,     0.000,   1,1,0
  2129,'1 ',1,   2,  11,     1.560,     0.442,     0.000,     0.000,     0.000,     0.000,   1,1,0
  2132,'1 ',1,   2,  10,     2.481,     0.702,     0.000,     0.000,     0.000,     0.000,   1,1,0
  2133,'1 ',1,   2,  11,     0.793,     0.225,     0.000,     0.000,     0.000,     0.000,   1,1,0
  3002,'1 ',1,   3,  28,    35.652,    10.103,     0.000,     0.000,     0.000,     0.000,   1,1,0
  3005,'1 ',1,   3,  28,     0.222,     0.062,     0.000,     0.000,     0.000,     0.000,   1,1,0
  3005,'2 ',1,   3,  28,     0.230,     0.064,     0.000,     0.000,     0.000,     0.000,   1,1,0
  3005,'3 ',1,   3,  28,     1.605,     0.454,     0.000,     0.000,     0.000,     0.000,   1,1,0
  3006,'1 ',1,   3,  27,     3.171,     0.897,     0.000,     0.000,     0.000,     0.000,   1,1,0
  3007,'1 ',1,   3,  27,     4.561,     1.293,     0.000,     0.000,     0.000,     0.000,   1,1,0
  3008,'1 ',1,   3,  27,    10.024,     2.838,     0.000,     0.000,     0.000,     0.000,   1,1,0
  3008,'2 ',1,   3,  27,     0.427,     0.121,     0.000,     0.000,     0.000,     0.000,   1,1,0
  3009,'1 ',1,   3,  28,     4.801,     1.359,     0.000,     0.000,     0.000,     0.000,   1,1,0
  3010,'1 ',1,   3,  28,     1.249,     0.353,     0.000,     0.000,     0.000,     0.000,   1,1,0
  3011,'1 ',1,   3,  28,     5.282,     1.497,     0.000,     0.000,     0.000,     0.000,   1,1,0
  3011,'2 ',1,   3,  28,     2.271,     0.643,     0.000,     0.000,     0.000,     0.000,   1,1,0
  3012,'1 ',1,   3,  28,     0.149,     0.043,     0.000,     0.000,     0.000,     0.000,   1,1,0
  3013,'1 ',1,   3,  27,    18.386,     5.209,     0.000,     0.000,     0.000,     0.000,   1,1,0
  3014,'1 ',1,   3,  28,     7.647,     2.165,     0.000,     0.000,     0.000,     0.000,   1,1,0
  3015,'1 ',1,   3,  27,     2.386,     0.677,     0.000,     0.000,     0.000,     0.000,   1,1,0
  3021,'1 ',1,   3,  27,     0.157,     0.045,     0.000,     0.000,     0.000,     0.000,   1,1,0
  3021,'2 ',1,   3,  27,     0.428,     0.120,     0.000,     0.000,     0.000,     0.000,   1,1,0
  3022,'1 ',1,   3,  27,     6.517,     1.847,     0.000,     0.000,     0.000,     0.000,   1,1,0
  3023,'1 ',1,   3,  27,     2.106,     0.597,     0.000,     0.000,     0.000,     0.000,   1,1,0
  3024,'1 ',1,   3,  28,     6.028,     1.708,     0.000,     0.000,     0.000,     0.000,   1,1,0
  3025,'1 ',1,   3,  28,     4.102,     1.161,     0.000,     0.000,     0.000,     0.000,   1,1,0
  3029,'1 ',1,   3,  28,     1.322,     0.375,     0.000,     0.000,     0.000,     0.000,   1,1,0
  3030,'1 ',1,   3,  27,    37.313,    10.571,     0.000,     0.000,     0.000,     0.000,   1,1,0
  3031,'1 ',1,   3,  27,     4.712,     1.334,     0.000,     0.000,     0.000,     0.000,   1,1,0
  3032,'1 ',1,   3,  27,    22.855,     6.474,     0.000,     0.000,     0.000,     0.000,   1,1,0
  3035,'1 ',1,   3,  28,     1.044,     0.295,     0.000,     0.000,     0.000,     0.000,   1,1,0
  3036,'1 ',1,   3,  28,     0.432,     0.123,     0.000,     0.000,     0.000,     0.000,   1,1,0
  3036,'2 ',1,   3,  28,     1.495,     0.425,     0.000,     0.000,     0.000,     0.000,   1,1,0
  3040,'1 ',1,   3,  27,     7.337,     2.079,     0.000,     0.000,     0.000,     0.000,   1,1,0
  3042,'1 ',1,   3,  27,     2.232,     0.631,     0.000,     0.000,     0.000,     0.000,   1,1,0
  3042,'2 ',1,   3,  27,     1.663,     0.471,     0.000,     0.000,     0.000,     0.000,   1,1,0
  3049,'1 ',1,   3,  27,     4.927,     1.397,     0.000,     0.000,     0.000,     0.000,   1,1,0
  3051,'1 ',1,   3,  28,     0.506,     0.145,     0.000,     0.000,     0.000,     0.000,   1,1,0
  3051,'2 ',1,   3,  28,    87.019,    24.657,     0.000,     0.000,     0.000,     0.000,   1,1,0
  3052,'1 ',1,   3,  28,     1.802,     0.511,     0.000,     0.000,     0.000,     0.000,   1,1,0
  3066,'1 ',1,   3,  28,     9.609,     2.722,     0.000,     0.000,     0.000,     0.000,   1,1,0
  3069,'1 ',1,   3,  27,     2.268,     0.643,     0.000,     0.000,     0.000,     0.000,   1,1,0
  3072,'1 ',1,   3,  27,     2.954,     0.840,     0.000,     0.000,     0.000,     0.000,   1,1,0
  3075,'1 ',1,   3,  28,     2.216,     0.628,     0.000,     0.000,     0.000,     0.000,   1,1,0
  3076,'1 ',1,   3,  28,     2.839,     0.805,     0.000,     0.000,     0.000,     0.000,   1,1,0
  3077,'1 ',1,   3,  27,    18.397,     5.211,     0.000,     0.000,     0.000,     0.000,   1,1,0
  3093,'1 ',1,   3,  28,     2.219,     0.628,     0.000,     0.000,     0.000,     0.000,   1,1,0
  3099,'1 ',1,   3,  27,     3.871,     1.096,     0.000,     0.000,     0.000,     0.000,   1,1,0
  3100,'1 ',1,   3,  27,     1.887,     0.535,     0.000,     0.000,     0.000,     0.000,   1,1,0
  3101,'1 ',1,   3,  28,     0.024,     0.007,     0.000,     0.000,     0.000,     0.000,   1,1,0
  3101,'2 ',1,   3,  28,     0.662,     0.187,     0.000,     0.000,     0.000,     0.000,   1,1,0
  3101,'3 ',1,   3,  28,     1.550,     0.439,     0.000,     0.000,     0.000,     0.000,   1,1,0
  3102,'1 ',1,   3,  27,    25.216,     7.143,     0.000,     0.000,     0.000,     0.000,   1,1,0
  3103,'1 ',1,   3,  27,     0.136,     0.037,     0.000,     0.000,     0.000,     0.000,   1,1,0
  3103,'2 ',1,   3,  27,    16.018,     4.541,     0.000,     0.000,     0.000,     0.000,   1,1,0
...
 0 /End of Load data, Begin Fixed shunt data
  2017,'2 ',1,     0.000,  -100.000
  2096,'2 ',1,     0.000,   -61.166
  3051,'2 ',0,     0.000,    80.000
  8005,'1 ',0,     0.000,   100.000
 0 /End of Fixed shunt data, Begin Generator data
  1004,'1 ',    71.740,     6.123,    44.940,   -30.380,1.08796,     0,   253.200, 0.00000E+0, 1.00000E+0, 0.00000E+0, 0.00000E+0,1.00000,1,  100.0,    71.740,    71.740,   1,1.0000,    ,      ,    ,      ,    ,      ,1, 1.0000
  1004,'2 ',   102.000,     8.706,    98.610,   -98.610,1.08796,     0,   100.000, 0.00000E+0, 1.00000E+0, 0.00000E+0, 0.00000E+0,1.00000,1,  100.0,   102.000,   102.000,   1,1.0000,    ,      ,    ,      ,    ,      ,1, 1.0000
  1006,'1 ',    11.662,     7.310,     7.310,     7.310,1.06780,     0,    41.160, 0.00000E+0, 1.00000E+0, 0.00000E+0, 0.00000E+0,1.00000,1,  100.0,    11.662,    11.662,   1,1.0000,    ,      ,    ,      ,    ,      ,1, 1.0000
  1009,'1 ',    28.050,    -6.165,    17.570,   -11.880,1.09886,     0,    99.000, 0.00000E+0, 1.00000E+0, 0.00000E+0, 0.00000E+0,1.00000,1,  100.0,    28.050,    28.050,   1,1.0000,    ,      ,    ,      ,    ,      ,1, 1.0000
  1011,'1 ',     9.972,     0.000,     0.000,     0.000,1.00000,     0,    12.000, 0.00000E+0, 1.00000E+0, 0.00000E+0, 0.00000E+0,1.00000,0,  100.0,    10.000,     3.000,   1,1.0000
  1016,'1 ',    70.448,    14.448,    68.100,   -68.100,1.08839,     0,   100.000, 0.00000E+0, 1.00000E+0, 0.00000E+0, 0.00000E+0,1.00000,1,  100.0,    70.448,    70.448,   1,1.0000,    ,      ,    ,      ,    ,      ,1, 1.0000
  1016,'2 ',    66.878,    13.716,    64.650,   -64.650,1.08839,     0,   100.000, 0.00000E+0, 1.00000E+0, 0.00000E+0, 0.00000E+0,1.00000,1,  100.0,    66.878,    66.878,   1,1.0000,    ,      ,    ,      ,    ,      ,1, 1.0000
  1021,'1 ',    67.830,   -13.048,    42.490,   -28.730,1.02555,     0,   239.400, 0.00000E+0, 1.00000E+0, 0.00000E+0, 0.00000E+0,1.00000,1,  100.0,    67.830,    67.830,   1,1.0000,    ,      ,    ,      ,    ,      ,1, 1.0000
  1023,'1 ',    61.200,     4.269,    38.340,   -25.920,1.09994,     0,   216.000, 0.00000E+0, 1.00000E+0, 0.00000E+0, 0.00000E+0,1.00000,1,  100.0,    61.200,    61.200,   1,1.0000,    ,      ,    ,      ,    ,      ,1, 1.0000
  1026,'1 ',    42.228,    26.450,    26.450,    26.450,1.10000,     0,   149.040, 0.00000E+0, 1.00000E+0, 0.00000E+0, 0.00000E+0,1.00000,1,  100.0,    42.228,    42.228,   1,1.0000,    ,      ,    ,      ,    ,      ,1, 1.0000
  1033,'1 ',    94.520,    33.556,    59.210,   -40.030,1.09998,     0,   333.600, 0.00000E+0, 1.00000E+0, 0.00000E+0, 0.00000E+0,1.00000,1,  100.0,    94.520,    94.520,   1,1.0000,    ,      ,    ,      ,    ,      ,1, 1.0000
  1035,'1 ',    30.600,    19.170,    19.170,    19.170,1.09313,     0,   108.000, 0.00000E+0, 1.00000E+0, 0.00000E+0, 0.00000E+0,1.00000,1,  100.0,    30.600,    30.600,   1,1.0000,    ,      ,    ,      ,    ,      ,1, 1.0000
  1036,'1 ',    27.880,    22.155,    26.950,   -26.950,1.09842,     0,   100.000, 0.00000E+0, 1.00000E+0, 0.00000E+0, 0.00000E+0,1.00000,1,  100.0,    27.880,    27.880,   1,1.0000,    ,      ,    ,      ,    ,      ,1, 1.0000
  1039,'1 ',    50.150,    19.990,    31.420,   -21.240,1.09996,     0,   177.000, 0.00000E+0, 1.00000E+0, 0.00000E+0, 0.00000E+0,1.00000,1,  100.0,    50.150,    50.150,   1,1.0000,    ,      ,    ,      ,    ,      ,1, 1.0000
  1041,'1 ',    19.992,    19.330,    19.330,   -19.330,1.06741,     0,   100.000, 0.00000E+0, 1.00000E+0, 0.00000E+0, 0.00000E+0,1.00000,1,  100.0,    19.992,    19.992,   1,1.0000,    ,      ,    ,      ,    ,      ,1, 1.0000
  1042,'1 ',    41.446,   -10.549,    25.960,   -17.550,1.00000,     0,   146.280, 0.00000E+0, 1.00000E+0, 0.00000E+0, 0.00000E+0,1.00000,0,  100.0,    41.446,    41.446,   1,1.0000,    ,      ,    ,      ,    ,      ,1, 1.0000
  1043,'1 ',    19.992,    12.520,    12.520,    12.520,1.08164,     0,    70.560, 0.00000E+0, 1.00000E+0, 0.00000E+0, 0.00000E+0,1.00000,1,  100.0,    19.992,    19.992,   1,1.0000,    ,      ,    ,      ,    ,      ,1, 1.0000
  1044,'1 ',   102.000,    -1.676,    98.610,   -98.610,1.05048,     0,   100.000, 0.00000E+0, 1.00000E+0, 0.00000E+0, 0.00000E+0,1.00000,1,  100.0,   102.000,   102.000,   1,1.0000,    ,      ,    ,      ,    ,      ,1, 1.0000
  1048,'1 ',     0.000,     0.000,   165.530,   -36.100,1.00000,     0,   390.240, 0.00000E+0, 1.01700E-1, 0.00000E+0, 0.00000E+0,1.00000,0,  100.0,   325.200,    97.560,   1,1.0000
  1049,'1 ',     0.000,     0.000,   165.530,   -36.100,1.00000,     0,   390.240, 0.00000E+0, 1.34900E-1, 0.00000E+0, 0.00000E+0,1.00000,0,  100.0,   325.200,    97.560,   1,1.0000
  1050,'1 ',    89.397,    45.500,    45.500,    -9.920,1.09999,     0,   107.280, 0.00000E+0, 2.77700E-1, 0.00000E+0, 0.00000E+0,1.00000,1,  100.0,    89.400,    26.820,   1,1.0000
  1051,'1 ',    89.396,    45.500,    45.500,    -9.920,1.09999,     0,   107.280, 0.00000E+0, 3.17400E-1, 0.00000E+0, 0.00000E+0,1.00000,1,  100.0,    89.400,    26.820,   1,1.0000
  1052,'1 ',    89.397,    45.500,    45.500,    -9.920,1.09999,     0,   107.280, 0.00000E+0, 2.78100E-1, 0.00000E+0, 0.00000E+0,1.00000,1,  100.0,    89.400,    26.820,   1,1.0000
  1053,'1 ',     0.000,     0.000,    91.010,   -19.850,1.00000,     0,   214.560, 0.00000E+0, 1.68700E-1, 0.00000E+0, 0.00000E+0,1.00000,0,  100.0,   178.800,    53.640,   1,1.0000
  1057,'1 ',    40.800,    -7.656,    25.560,   -17.280,1.00000,     0,   144.000, 0.00000E+0, 1.00000E+0, 0.00000E+0, 0.00000E+0,1.00000,0,  100.0,    40.800,    40.800,   1,1.0000,    ,      ,    ,      ,    ,      ,1, 1.0000
  1059,'1 ',     0.000,     0.000,     2.850,    -0.620,1.04000,     0,     6.720, 0.00000E+0, 2.27700E-1, 0.00000E+0, 0.00000E+0,1.00000,0,  100.0,     5.600,     1.680,   1,1.0000
  1060,'1 ',     0.000,     0.000,     1.020,    -0.220,1.04000,     0,     2.400, 0.00000E+0, 1.63000E-1, 0.00000E+0, 0.00000E+0,1.00000,0,  100.0,     2.000,     0.600,   1,1.0000
  1062,'1 ',     0.000,     0.000,     0.000,     0.000,1.01000,     0,     1.800, 0.00000E+0, 1.00000E+0, 0.00000E+0, 0.00000E+0,1.00000,0,  100.0,     1.500,     0.450,   1,1.0000
  1063,'1 ',     0.000,     0.000,     0.000,     0.000,1.01000,     0,   276.000, 0.00000E+0, 1.00000E+0, 0.00000E+0, 0.00000E+0,1.00000,0,  100.0,   230.000,    69.000,   1,1.0000
  1066,'1 ',    48.450,    30.350,    30.350,    30.350,1.09999,     0,   171.000, 0.00000E+0, 1.00000E+0, 0.00000E+0, 0.00000E+0,1.00000,1,  100.0,    48.450,    48.450,   1,1.0000,    ,      ,    ,      ,    ,      ,1, 1.0000
  1069,'1 ',   102.000,     0.000,     0.000,     0.000,1.09797,     0,   100.000, 0.00000E+0, 1.00000E+0, 0.00000E+0, 0.00000E+0,1.00000,1,  100.0,   102.000,   102.000,   1,1.0000,    ,      ,    ,      ,    ,      ,1, 1.0000
  1070,'1 ',    54.570,    -6.916,    34.190,   -23.110,1.09929,     0,   192.600, 0.00000E+0, 1.00000E+0, 0.00000E+0, 0.00000E+0,1.00000,1,  100.0,    54.570,    54.570,   1,1.0000,    ,      ,    ,      ,    ,      ,1, 1.0000
  1072,'1 ',   159.240,    97.009,    97.800,   -21.330,1.09999,     0,   230.560, 0.00000E+0, 3.08200E-1, 0.00000E+0, 0.00000E+0,1.00000,1,  100.0,   192.130,    57.640,   1,1.0000
  1073,'1 ',   157.725,    68.635,    97.800,   -21.330,1.09999,     0,   230.560, 0.00000E+0, 1.94800E-1, 0.00000E+0, 0.00000E+0,1.00000,1,  100.0,   192.130,    57.640,   1,1.0000
  1074,'1 ',   142.151,    71.394,    97.800,   -21.330,1.09999,     0,   230.560, 0.00000E+0, 2.09600E-1, 0.00000E+0, 0.00000E+0,1.00000,1,  100.0,   192.130,    57.640,   1,1.0000
  1075,'1 ',   192.081,    92.669,    97.800,   -21.330,1.09999,     0,   230.560, 0.00000E+0, 1.23700E-1, 0.00000E+0, 0.00000E+0,1.00000,1,  100.0,   192.130,    57.640,   1,1.0000
  1076,'1 ',     0.000,     0.000,    97.800,   -21.330,1.01000,     0,   230.560, 0.00000E+0, 1.06600E-1, 0.00000E+0, 0.00000E+0,1.00000,0,  100.0,   192.130,    57.640,   1,1.0000
  1077,'1 ',     0.000,     0.000,    97.800,   -21.330,1.01000,     0,   230.560, 0.00000E+0, 1.53800E-1, 0.00000E+0, 0.00000E+0,1.00000,0,  100.0,   192.130,    57.640,   1,1.0000
  1078,'1 ',    95.493,    48.610,    48.610,   -10.600,1.09998,     0,   114.600, 0.00000E+0, 2.85200E-1, 0.00000E+0, 0.00000E+0,1.00000,1,  100.0,    95.500,    28.650,   1,1.0000
  1079,'1 ',    28.691,    48.610,    48.610,   -10.600,1.09540,     0,   114.600, 0.00000E+0, 1.72600E-1, 0.00000E+0, 0.00000E+0,1.00000,1,  100.0,    95.500,    28.650,   1,1.0000
  1080,'1 ',    69.621,    41.333,    48.610,   -10.600,1.09998,     0,   114.600, 0.00000E+0, 1.54300E-1, 0.00000E+0, 0.00000E+0,1.00000,1,  100.0,    95.500,    28.650,   1,1.0000
  1081,'1 ',     0.000,     0.000,   145.830,   -31.800,1.01000,     0,   343.800, 0.00000E+0, 1.49600E-1, 0.00000E+0, 0.00000E+0,1.00000,0,  100.0,   286.500,    85.950,   1,1.0000
  1082,'1 ',    51.000,    23.774,    31.950,   -21.600,1.09996,     0,   180.000, 0.00000E+0, 1.00000E+0, 0.00000E+0, 0.00000E+0,1.00000,1,  100.0,    51.000,    51.000,   1,1.0000,    ,      ,    ,      ,    ,      ,1, 1.0000
  1084,'1 ',    39.270,    13.208,    24.600,   -16.630,1.04009,     0,   138.600, 0.00000E+0, 1.00000E+0, 0.00000E+0, 0.00000E+0,1.00000,0,  100.0,    39.270,    39.270,   1,1.0000,    ,      ,    ,      ,    ,      ,1, 1.0000
  1088,'1 ',    25.500,    15.970,    15.970,   -10.800,1.09145,     0,    90.000, 0.00000E+0, 1.00000E+0, 0.00000E+0, 0.00000E+0,1.00000,1,  100.0,    25.500,    25.500,   1,1.0000,    ,      ,    ,      ,    ,      ,1, 1.0000
  1089,'1 ',    71.808,    69.420,    69.420,   -69.420,1.07819,     0,   100.000, 0.00000E+0, 1.00000E+0, 0.00000E+0, 0.00000E+0,1.00000,1,  100.0,    71.808,    71.808,   1,1.0000,    ,      ,    ,      ,    ,      ,1, 1.0000
  1090,'1 ',    51.850,    32.480,    32.480,   -21.960,1.00935,     0,   183.000, 0.00000E+0, 1.00000E+0, 0.00000E+0, 0.00000E+0,1.00000,1,  100.0,    51.850,    51.850,   1,1.0000,    ,      ,    ,      ,    ,      ,1, 1.0000
  1090,'2 ',    12.240,     7.670,     7.670,    -5.180,1.00935,     0,    43.200, 0.00000E+0, 1.00000E+0, 0.00000E+0, 0.00000E+0,1.00000,1,  100.0,    12.240,    12.240,   1,1.0000,    ,      ,    ,      ,    ,      ,1, 1.0000
  2004,'1 ',     0.000,     0.000,   199.430,   -43.490,1.02000,     0,   470.160, 0.00000E+0, 1.06400E-1, 0.00000E+0, 0.00000E+0,1.00000,0,  100.0,   391.800,   117.540,   1,1.0000
  2005,'1 ',     0.000,     0.000,   199.430,   -43.490,1.02000,     0,   470.160, 0.00000E+0, 2.27500E-1, 0.00000E+0, 0.00000E+0,1.00000,0,  100.0,   391.800,   117.540,   1,1.0000
  2006,'1 ',     0.000,     0.000,   199.430,   -43.490,1.02000,     0,   470.160, 0.00000E+0, 2.00400E-1, 0.00000E+0, 0.00000E+0,1.00000,0,  100.0,   391.800,   117.540,   1,1.0000
  2010,'1 ',   127.008,     8.595,   115.960,  -115.960,1.06785,     0,   100.000, 0.00000E+0, 1.00000E+0, 0.00000E+0, 0.00000E+0,1.00000,1,  100.0,   127.008,   127.008,   1,1.0000,    ,      ,    ,      ,    ,      ,1, 1.0000
  2011,'1 ',    58.680,   -53.429,    53.580,   -53.580,1.09153,     0,   100.000, 0.00000E+0, 1.00000E+0, 0.00000E+0, 0.00000E+0,1.00000,1,  100.0,    58.680,    58.680,   1,1.0000,    ,      ,    ,      ,    ,      ,1, 1.0000
  2012,'1 ',    82.944,    18.870,    75.730,   -75.730,1.07672,     0,   100.000, 0.00000E+0, 1.00000E+0, 0.00000E+0, 0.00000E+0,1.00000,1,  100.0,    82.944,    82.944,   1,1.0000,    ,      ,    ,      ,    ,      ,1, 1.0000
  2013,'1 ',    72.216,   -28.824,    42.730,   -28.890,1.08394,     0,   240.720, 0.00000E+0, 1.00000E+0, 0.00000E+0, 0.00000E+0,1.00000,1,  100.0,    72.216,    72.216,   1,1.0000,    ,      ,    ,      ,    ,      ,1, 1.0000
  2019,'1 ',    78.480,    46.430,    46.430,   -31.390,1.04000,     0,   261.600, 0.00000E+0, 1.00000E+0, 0.00000E+0, 0.00000E+0,1.00000,0,  100.0,    78.480,    78.480,   1,1.0000,    ,      ,    ,      ,    ,      ,1, 1.0000
  2023,'1 ',    25.005,    -9.250,    42.420,    -9.250,1.07700,     0,   100.000, 0.00000E+0, 2.94400E-1, 0.00000E+0, 0.00000E+0,1.00000,1,  100.0,    83.330,    25.000,   1,1.0000
  2024,'1 ',    50.010,   -18.500,    84.830,   -18.500,1.07577,     0,   200.000, 0.00000E+0, 1.50800E-1, 0.00000E+0, 0.00000E+0,1.00000,1,  100.0,   166.670,    50.000,   1,1.0000
  2029,'1 ',    21.528,     2.229,    19.660,   -19.660,1.07327,     0,   100.000, 0.00000E+0, 1.00000E+0, 0.00000E+0, 0.00000E+0,1.00000,1,  100.0,    21.528,    21.528,   1,1.0000,    ,      ,    ,      ,    ,      ,1, 1.0000
  2029,'2 ',    92.628,     9.589,    84.570,   -84.570,1.07327,     0,   100.000, 0.00000E+0, 1.00000E+0, 0.00000E+0, 0.00000E+0,1.00000,1,  100.0,    92.628,    92.628,   1,1.0000,    ,      ,    ,      ,    ,      ,1, 1.0000
  2029,'3 ',    72.000,     7.454,    65.740,   -65.740,1.07327,     0,   100.000, 0.00000E+0, 1.00000E+0, 0.00000E+0, 0.00000E+0,1.00000,1,  100.0,    72.000,    72.000,   1,1.0000,    ,      ,    ,      ,    ,      ,1, 1.0000
  2029,'4 ',    18.144,     1.878,    16.570,   -16.570,1.07327,     0,   100.000, 0.00000E+0, 1.00000E+0, 0.00000E+0, 0.00000E+0,1.00000,1,  100.0,    18.144,    18.144,   1,1.0000,    ,      ,    ,      ,    ,      ,1, 1.0000
  2029,'5 ',    54.432,     5.635,    49.700,   -49.700,1.07327,     0,   100.000, 0.00000E+0, 1.00000E+0, 0.00000E+0, 0.00000E+0,1.00000,1,  100.0,    54.432,    54.432,   1,1.0000,    ,      ,    ,      ,    ,      ,1, 1.0000
  2029,'6 ',    72.000,     7.454,    65.740,   -65.740,1.07327,     0,   100.000, 0.00000E+0, 1.00000E+0, 0.00000E+0, 0.00000E+0,1.00000,1,  100.0,    72.000,    72.000,   1,1.0000,    ,      ,    ,      ,    ,      ,1, 1.0000
  2029,'7 ',    54.000,     5.590,    49.300,   -49.300,1.07327,     0,   100.000, 0.00000E+0, 1.00000E+0, 0.00000E+0, 0.00000E+0,1.00000,1,  100.0,    54.000,    54.000,   1,1.0000,    ,      ,    ,      ,    ,      ,1, 1.0000
  2029,'8 ',   108.000,    11.180,    98.610,   -98.610,1.07327,     0,   100.000, 0.00000E+0, 1.00000E+0, 0.00000E+0, 0.00000E+0,1.00000,1,  100.0,   108.000,   108.000,   1,1.0000,    ,      ,    ,      ,    ,      ,1, 1.0000
  2035,'1 ',    82.800,    21.561,    75.600,   -75.600,1.07493,     0,   100.000, 0.00000E+0, 1.00000E+0, 0.00000E+0, 0.00000E+0,1.00000,1,  100.0,    82.800,    82.800,   1,1.0000,    ,      ,    ,      ,    ,      ,1, 1.0000
  2035,'2 ',    90.000,    23.436,    82.170,   -82.170,1.07493,     0,   100.000, 0.00000E+0, 1.00000E+0, 0.00000E+0, 0.00000E+0,1.00000,1,  100.0,    90.000,    90.000,   1,1.0000,    ,      ,    ,      ,    ,      ,1, 1.0000
  2042,'1 ',    28.656,    -2.028,    16.950,   -11.460,1.08035,     0,    95.520, 0.00000E+0, 1.00000E+0, 0.00000E+0, 0.00000E+0,1.00000,1,  100.0,    28.656,    28.656,   1,1.0000,    ,      ,    ,      ,    ,      ,1, 1.0000
  2049,'1 ',    72.000,    26.467,    65.740,   -65.740,1.06321,     0,   100.000, 0.00000E+0, 1.00000E+0, 0.00000E+0, 0.00000E+0,1.00000,1,  100.0,    72.000,    72.000,   1,1.0000,    ,      ,    ,      ,    ,      ,1, 1.0000
  2049,'2 ',    57.960,    21.306,    52.920,   -52.920,1.06321,     0,   100.000, 0.00000E+0, 1.00000E+0, 0.00000E+0, 0.00000E+0,1.00000,1,  100.0,    57.960,    57.960,   1,1.0000,    ,      ,    ,      ,    ,      ,1, 1.0000
  2049,'3 ',    69.840,    25.673,    63.760,   -63.760,1.06321,     0,   100.000, 0.00000E+0, 1.00000E+0, 0.00000E+0, 0.00000E+0,1.00000,1,  100.0,    69.840,    69.840,   1,1.0000,    ,      ,    ,      ,    ,      ,1, 1.0000
  2049,'4 ',   107.892,    39.661,    98.510,   -98.510,1.06321,     0,   100.000, 0.00000E+0, 1.00000E+0, 0.00000E+0, 0.00000E+0,1.00000,1,  100.0,   107.892,   107.892,   1,1.0000,    ,      ,    ,      ,    ,      ,1, 1.0000
  2049,'5 ',    82.800,    30.437,    75.600,   -75.600,1.06321,     0,   100.000, 0.00000E+0, 1.00000E+0, 0.00000E+0, 0.00000E+0,1.00000,1,  100.0,    82.800,    82.800,   1,1.0000,    ,      ,    ,      ,    ,      ,1, 1.0000
  2052,'1 ',    62.640,    57.190,    57.190,   -57.190,1.07282,     0,   100.000, 0.00000E+0, 1.00000E+0, 0.00000E+0, 0.00000E+0,1.00000,1,  100.0,    62.640,    62.640,   1,1.0000,    ,      ,    ,      ,    ,      ,1, 1.0000
  2056,'1 ',     0.000,     0.000,     2.800,    -0.730,0.99000,     0,     7.200, 0.00000E+0, 2.49200E-1, 0.00000E+0, 0.00000E+0,1.00000,0,  100.0,     6.000,     1.800,   1,1.0000
  2057,'1 ',     0.000,   104.411,   335.520,   -87.840,1.07445,     0,   864.000, 0.00000E+0, 1.77000E-1, 0.00000E+0, 0.00000E+0,1.00000,1,  100.0,   720.000,   216.000,   1,1.0000
  2058,'1 ',    72.000,   -19.196,    65.740,   -65.740,1.08286,     0,   100.000, 0.00000E+0, 1.00000E+0, 0.00000E+0, 0.00000E+0,1.00000,1,  100.0,    72.000,    72.000,   1,1.0000,    ,      ,    ,      ,    ,      ,1, 1.0000
  2059,'1 ',    28.800,     0.295,    17.040,   -11.520,1.08423,     0,    96.000, 0.00000E+0, 1.00000E+0, 0.00000E+0, 0.00000E+0,1.00000,1,  100.0,    28.800,    28.800,   1,1.0000,    ,      ,    ,      ,    ,      ,1, 1.0000
  2061,'1 ',    35.784,    -3.298,    32.670,   -32.670,1.06750,     0,   100.000, 0.00000E+0, 1.00000E+0, 0.00000E+0, 0.00000E+0,1.00000,1,  100.0,    35.784,    35.784,   1,1.0000,    ,      ,    ,      ,    ,      ,1, 1.0000
  2061,'2 ',    66.168,    -6.098,    60.410,   -60.410,1.06750,     0,   100.000, 0.00000E+0, 1.00000E+0, 0.00000E+0, 0.00000E+0,1.00000,1,  100.0,    66.168,    66.168,   1,1.0000,    ,      ,    ,      ,    ,      ,1, 1.0000
  2062,'1 ',    48.744,    -0.095,    28.840,   -19.500,1.06821,     0,   162.480, 0.00000E+0, 1.00000E+0, 0.00000E+0, 0.00000E+0,1.00000,1,  100.0,    48.744,    48.744,   1,1.0000,    ,      ,    ,      ,    ,      ,1, 1.0000
  2062,'2 ',    72.072,    -0.140,    65.800,   -65.800,1.06821,     0,   100.000, 0.00000E+0, 1.00000E+0, 0.00000E+0, 0.00000E+0,1.00000,1,  100.0,    72.072,    72.072,   1,1.0000,    ,      ,    ,      ,    ,      ,1, 1.0000
  2068,'1 ',    69.360,    -9.624,    67.050,   -67.050,1.05698,     0,   100.000, 0.00000E+0, 1.00000E+0, 0.00000E+0, 0.00000E+0,1.00000,1,  100.0,    69.360,    69.360,   1,1.0000,    ,      ,    ,      ,    ,      ,1, 1.0000
  2071,'1 ',    51.000,   -17.314,    31.950,   -21.600,1.04989,     0,   180.000, 0.00000E+0, 1.00000E+0, 0.00000E+0, 0.00000E+0,1.00000,1,  100.0,    51.000,    51.000,   1,1.0000,    ,      ,    ,      ,    ,      ,1, 1.0000
  2076,'1 ',    10.800,     6.390,     6.390,    -4.320,1.08418,     0,    36.000, 0.00000E+0, 1.00000E+0, 0.00000E+0, 0.00000E+0,1.00000,1,  100.0,    10.800,    10.800,   1,1.0000,    ,      ,    ,      ,    ,      ,1, 1.0000
  2077,'1 ',    42.704,     3.544,    41.280,   -41.280,1.05903,     0,   100.000, 0.00000E+0, 1.00000E+0, 0.00000E+0, 0.00000E+0,1.00000,1,  100.0,    42.704,    42.704,   1,1.0000,    ,      ,    ,      ,    ,      ,1, 1.0000
  2078,'1 ',    38.250,     0.625,    23.960,   -16.200,1.05986,     0,   135.000, 0.00000E+0, 1.00000E+0, 0.00000E+0, 0.00000E+0,1.00000,1,  100.0,    38.250,    38.250,   1,1.0000,    ,      ,    ,      ,    ,      ,1, 1.0000
  2083,'1 ',     6.011,    10.180,    10.180,    -2.220,1.07447,     0,    24.000, 0.00000E+0, 1.64100E-1, 0.00000E+0, 0.00000E+0,1.00000,1,  100.0,    20.000,     6.000,   1,1.0000
  2084,'1 ',     0.000,     0.000,    10.180,    -2.220,1.02000,     0,    24.000, 0.00000E+0, 2.31200E-1, 0.00000E+0, 0.00000E+0,1.00000,0,  100.0,    20.000,     6.000,   1,1.0000
  2085,'1 ',     0.000,     0.000,    20.360,    -4.440,1.02000,     0,    48.000, 0.00000E+0, 2.26900E-1, 0.00000E+0, 0.00000E+0,1.00000,0,  100.0,    40.000,    12.000,   1,1.0000
  2089,'1 ',    22.984,    -7.038,    14.400,    -9.730,1.04947,     0,    81.120, 0.00000E+0, 1.00000E+0, 0.00000E+0, 0.00000E+0,1.00000,1,  100.0,    22.984,    22.984,   1,1.0000,    ,      ,    ,      ,    ,      ,1, 1.0000
  2091,'1 ',    54.000,   -10.592,    49.300,   -49.300,1.07154,     0,   100.000, 0.00000E+0, 1.00000E+0, 0.00000E+0, 0.00000E+0,1.00000,1,  100.0,    54.000,    54.000,   1,1.0000,    ,      ,    ,      ,    ,      ,1, 1.0000
...